<configuration>
    <input>
        <net-file value="tutorial.net.xml"/>
        <route-files value="tutorial.route_flow.alt.xml"/>
        <gui-settings-file value="tutorial.settings.xml"/>
    </input>
    <time>
        <begin value="0"/>
        <end value="3840"/>
    </time>
</configuration>
